6324
  -OEChem-11242308402D

  8  7  0     0  0  0  0  0  0999 V2000
    2.0000    0.0000    0.0000 C   0  0  0  0  0  0  0  0  0  0  0  0
    3.0000    0.0000    0.0000 C   0  0  0  0  0  0  0  0  0  0  0  0
    2.0000    0.6200    0.0000 H   0  0  0  0  0  0  0  0  0  0  0  0
    1.3800    0.0000    0.0000 H   0  0  0  0  0  0  0  0  0  0  0  0
    2.0000   -0.6200    0.0000 H   0  0  0  0  0  0  0  0  0  0  0  0
    3.0000   -0.6200    0.0000 H   0  0  0  0  0  0  0  0  0  0  0  0
    3.6200   -0.0000    0.0000 H   0  0  0  0  0  0  0  0  0  0  0  0
    3.0000    0.6200    0.0000 H   0  0  0  0  0  0  0  0  0  0  0  0
  1  2  1  0  0  0  0
  1  3  1  0  0  0  0
  1  4  1  0  0  0  0
  1  5  1  0  0  0  0
  2  6  1  0  0  0  0
  2  7  1  0  0  0  0
  2  8  1  0  0  0  0
M  END
> <PUBCHEM_COMPOUND_CID>
6324

> <PUBCHEM_COMPOUND_CANONICALIZED>
1

> <PUBCHEM_CACTVS_COMPLEXITY>
0

> <PUBCHEM_CACTVS_HBOND_ACCEPTOR>
0

> <PUBCHEM_CACTVS_HBOND_DONOR>
0

> <PUBCHEM_CACTVS_ROTATABLE_BOND>
0

> <PUBCHEM_CACTVS_SUBSKEYS>
AAADcYBAAAAAAAAAAAAAAAAAAAAAAAAAAAAAAAAAAAAAAAAAAAAAGAAAAAAAAACAAAACAAAAAAAAAAAAAAAAAAAAAAAAAAAAAAAAAAAAAAAAAAAAAAAAAAAAAAAAAAAAAAAAAAAAAAAAAAAAAAAAAAAAAA==

> <PUBCHEM_IUPAC_OPENEYE_NAME>
ethane

> <PUBCHEM_IUPAC_CAS_NAME>
ethane

> <PUBCHEM_IUPAC_NAME_MARKUP>
ethane

> <PUBCHEM_IUPAC_NAME>
ethane

> <PUBCHEM_IUPAC_SYSTEMATIC_NAME>
ethane

> <PUBCHEM_IUPAC_TRADITIONAL_NAME>
ethane

> <PUBCHEM_IUPAC_INCHI>
InChI=1S/C2H6/c1-2/h1-2H3

> <PUBCHEM_IUPAC_INCHIKEY>
OTMSDBZUPAUEDD-UHFFFAOYSA-N

> <PUBCHEM_XLOGP3_AA>
1.3

> <PUBCHEM_EXACT_MASS>
30.0469501914

> <PUBCHEM_MOLECULAR_FORMULA>
C2H6

> <PUBCHEM_MOLECULAR_WEIGHT>
30.07

> <PUBCHEM_OPENEYE_CAN_SMILES>
CC

> <PUBCHEM_OPENEYE_ISO_SMILES>
CC

> <PUBCHEM_CACTVS_TPSA>
0

> <PUBCHEM_MONOISOTOPIC_WEIGHT>
30.0469501914

> <PUBCHEM_TOTAL_CHARGE>
0

> <PUBCHEM_HEAVY_ATOM_COUNT>
2

> <PUBCHEM_ATOM_DEF_STEREO_COUNT>
0

> <PUBCHEM_ATOM_UDEF_STEREO_COUNT>
0

> <PUBCHEM_BOND_DEF_STEREO_COUNT>
0

> <PUBCHEM_BOND_UDEF_STEREO_COUNT>
0

> <PUBCHEM_ISOTOPIC_ATOM_COUNT>
0

> <PUBCHEM_COMPONENT_COUNT>
1

> <PUBCHEM_CACTVS_TAUTO_COUNT>
-1

> <PUBCHEM_COORDINATE_TYPE>
1
5
255

$$$$
