22386
  -OEChem-11242308412D

 18 17  0     1  0  0  0  0  0999 V2000
    2.5369    0.7500    0.0000 O   0  0  0  0  0  0  0  0  0  0  0  0
    4.2690    0.7500    0.0000 C   0  0  0  0  0  0  0  0  0  0  0  0
    3.4030    0.2500    0.0000 C   0  0  3  0  0  0  0  0  0  0  0  0
    5.1350    0.2500    0.0000 C   0  0  0  0  0  0  0  0  0  0  0  0
    3.4030   -0.7500    0.0000 C   0  0  0  0  0  0  0  0  0  0  0  0
    6.0010    0.7500    0.0000 C   0  0  0  0  0  0  0  0  0  0  0  0
    4.6675    1.2250    0.0000 H   0  0  0  0  0  0  0  0  0  0  0  0
    3.8705    1.2250    0.0000 H   0  0  0  0  0  0  0  0  0  0  0  0
    3.4030    0.8700    0.0000 H   0  0  0  0  0  0  0  0  0  0  0  0
    4.7365   -0.2249    0.0000 H   0  0  0  0  0  0  0  0  0  0  0  0
    5.5335   -0.2249    0.0000 H   0  0  0  0  0  0  0  0  0  0  0  0
    2.7830   -0.7500    0.0000 H   0  0  0  0  0  0  0  0  0  0  0  0
    3.4030   -1.3700    0.0000 H   0  0  0  0  0  0  0  0  0  0  0  0
    4.0230   -0.7500    0.0000 H   0  0  0  0  0  0  0  0  0  0  0  0
    6.3110    0.2131    0.0000 H   0  0  0  0  0  0  0  0  0  0  0  0
    6.5380    1.0600    0.0000 H   0  0  0  0  0  0  0  0  0  0  0  0
    5.6910    1.2869    0.0000 H   0  0  0  0  0  0  0  0  0  0  0  0
    2.0000    0.4400    0.0000 H   0  0  0  0  0  0  0  0  0  0  0  0
  1  3  1  0  0  0  0
  1 18  1  0  0  0  0
  2  3  1  0  0  0  0
  2  4  1  0  0  0  0
  2  7  1  0  0  0  0
  2  8  1  0  0  0  0
  3  5  1  0  0  0  0
  3  9  1  0  0  0  0
  4  6  1  0  0  0  0
  4 10  1  0  0  0  0
  4 11  1  0  0  0  0
  5 12  1  0  0  0  0
  5 13  1  0  0  0  0
  5 14  1  0  0  0  0
  6 15  1  0  0  0  0
  6 16  1  0  0  0  0
  6 17  1  0  0  0  0
M  END
> <PUBCHEM_COMPOUND_CID>
22386

> <PUBCHEM_COMPOUND_CANONICALIZED>
1

> <PUBCHEM_CACTVS_COMPLEXITY>
27.1

> <PUBCHEM_CACTVS_HBOND_ACCEPTOR>
1

> <PUBCHEM_CACTVS_HBOND_DONOR>
1

> <PUBCHEM_CACTVS_ROTATABLE_BOND>
2

> <PUBCHEM_CACTVS_SUBSKEYS>
AAADccBgIAAAAAAAAAAAAAAAAAAAAAAAAAAAAAAAAAAAAAAAAAAAGgAACAAACBSggAICAAAAAgAAAAAAAAAAAAAAAAAAAAAAAAAAEAIAAAAAQAAEAAAAAAAAAAAAAAAAAAAAAAAAAAAAAAAAAAAAAAAAAA==

> <PUBCHEM_IUPAC_OPENEYE_NAME>
pentan-2-ol

> <PUBCHEM_IUPAC_CAS_NAME>
2-pentanol

> <PUBCHEM_IUPAC_NAME_MARKUP>
pentan-2-ol

> <PUBCHEM_IUPAC_NAME>
pentan-2-ol

> <PUBCHEM_IUPAC_SYSTEMATIC_NAME>
pentan-2-ol

> <PUBCHEM_IUPAC_TRADITIONAL_NAME>
pentan-2-ol

> <PUBCHEM_IUPAC_INCHI>
InChI=1S/C5H12O/c1-3-4-5(2)6/h5-6H,3-4H2,1-2H3

> <PUBCHEM_IUPAC_INCHIKEY>
JYVLIDXNZAXMDK-UHFFFAOYSA-N

> <PUBCHEM_XLOGP3>
1.2

> <PUBCHEM_EXACT_MASS>
88.088815002

> <PUBCHEM_MOLECULAR_FORMULA>
C5H12O

> <PUBCHEM_MOLECULAR_WEIGHT>
88.15

> <PUBCHEM_OPENEYE_CAN_SMILES>
CCCC(C)O

> <PUBCHEM_OPENEYE_ISO_SMILES>
CCCC(C)O

> <PUBCHEM_CACTVS_TPSA>
20.2

> <PUBCHEM_MONOISOTOPIC_WEIGHT>
88.088815002

> <PUBCHEM_TOTAL_CHARGE>
0

> <PUBCHEM_HEAVY_ATOM_COUNT>
6

> <PUBCHEM_ATOM_DEF_STEREO_COUNT>
0

> <PUBCHEM_ATOM_UDEF_STEREO_COUNT>
1

> <PUBCHEM_BOND_DEF_STEREO_COUNT>
0

> <PUBCHEM_BOND_UDEF_STEREO_COUNT>
0

> <PUBCHEM_ISOTOPIC_ATOM_COUNT>
0

> <PUBCHEM_COMPONENT_COUNT>
1

> <PUBCHEM_CACTVS_TAUTO_COUNT>
1

> <PUBCHEM_COORDINATE_TYPE>
1
5
255

> <PUBCHEM_BONDANNOTATIONS>
3  1  3

$$$$
