643833
  -OEChem-11202310062D

  6  5  0     0  0  0  0  0  0999 V2000
    3.7320    1.0600    0.0000 Cl  0  0  0  0  0  0  0  0  0  0  0  0
    2.0000    0.0600    0.0000 Cl  0  0  0  0  0  0  0  0  0  0  0  0
    3.7320    0.0600    0.0000 C   0  0  0  0  0  0  0  0  0  0  0  0
    2.8660   -0.4400    0.0000 C   0  0  0  0  0  0  0  0  0  0  0  0
    4.2690   -0.2500    0.0000 H   0  0  0  0  0  0  0  0  0  0  0  0
    2.8660   -1.0600    0.0000 H   0  0  0  0  0  0  0  0  0  0  0  0
  1  3  1  0  0  0  0
  2  4  1  0  0  0  0
  3  4  2  0  0  0  0
  3  5  1  0  0  0  0
  4  6  1  0  0  0  0
M  END
> <PUBCHEM_COMPOUND_CID>
643833

> <PUBCHEM_COMPOUND_CANONICALIZED>
1

> <PUBCHEM_CACTVS_COMPLEXITY>
19.2

> <PUBCHEM_CACTVS_HBOND_ACCEPTOR>
0

> <PUBCHEM_CACTVS_HBOND_DONOR>
0

> <PUBCHEM_CACTVS_ROTATABLE_BOND>
0

> <PUBCHEM_CACTVS_SUBSKEYS>
AAADcQBAAAAGAAAAAAAAAAAAAAAAAAAAAAAAAAAAAAAAAAAAAAAAGAIAAAAAAAOAAEAAAAAAAACAAAACAAAAAAAAAAAIAAAAAAAAAAAAAAAAAAAAAAAAAAAAAAAAAAAAAAAAAAAAAAAAAAAAAAAAAAAAAA==

> <PUBCHEM_IUPAC_OPENEYE_NAME>
(Z)-1,2-dichloroethylene

> <PUBCHEM_IUPAC_CAS_NAME>
(Z)-1,2-dichloroethene

> <PUBCHEM_IUPAC_NAME_MARKUP>
(<I>Z</I>)-1,2-dichloroethene

> <PUBCHEM_IUPAC_NAME>
(Z)-1,2-dichloroethene

> <PUBCHEM_IUPAC_SYSTEMATIC_NAME>
(Z)-1,2-bis(chloranyl)ethene

> <PUBCHEM_IUPAC_TRADITIONAL_NAME>
(Z)-1,2-dichloroethylene

> <PUBCHEM_IUPAC_INCHI>
InChI=1S/C2H2Cl2/c3-1-2-4/h1-2H/b2-1-

> <PUBCHEM_IUPAC_INCHIKEY>
KFUSEUYYWQURPO-UPHRSURJSA-N

> <PUBCHEM_XLOGP3>
1.9

> <PUBCHEM_EXACT_MASS>
95.9533555

> <PUBCHEM_MOLECULAR_FORMULA>
C2H2Cl2

> <PUBCHEM_MOLECULAR_WEIGHT>
96.94

> <PUBCHEM_OPENEYE_CAN_SMILES>
C(=CCl)Cl

> <PUBCHEM_OPENEYE_ISO_SMILES>
C(=C\Cl)\Cl

> <PUBCHEM_CACTVS_TPSA>
0

> <PUBCHEM_MONOISOTOPIC_WEIGHT>
95.9533555

> <PUBCHEM_TOTAL_CHARGE>
0

> <PUBCHEM_HEAVY_ATOM_COUNT>
4

> <PUBCHEM_ATOM_DEF_STEREO_COUNT>
0

> <PUBCHEM_ATOM_UDEF_STEREO_COUNT>
0

> <PUBCHEM_BOND_DEF_STEREO_COUNT>
1

> <PUBCHEM_BOND_UDEF_STEREO_COUNT>
0

> <PUBCHEM_ISOTOPIC_ATOM_COUNT>
0

> <PUBCHEM_COMPONENT_COUNT>
1

> <PUBCHEM_CACTVS_TAUTO_COUNT>
-1

> <PUBCHEM_COORDINATE_TYPE>
1
5
255

$$$$
