8063
  -OEChem-11202310062D

 16 15  0     0  0  0  0  0  0999 V2000
    6.3301    0.5600    0.0000 O   0  0  0  0  0  0  0  0  0  0  0  0
    3.7320    0.0600    0.0000 C   0  0  0  0  0  0  0  0  0  0  0  0
    2.8660    0.5600    0.0000 C   0  0  0  0  0  0  0  0  0  0  0  0
    4.5981    0.5600    0.0000 C   0  0  0  0  0  0  0  0  0  0  0  0
    2.0000    0.0600    0.0000 C   0  0  0  0  0  0  0  0  0  0  0  0
    5.4641    0.0600    0.0000 C   0  0  0  0  0  0  0  0  0  0  0  0
    3.3335   -0.4149    0.0000 H   0  0  0  0  0  0  0  0  0  0  0  0
    4.1306   -0.4149    0.0000 H   0  0  0  0  0  0  0  0  0  0  0  0
    3.2646    1.0350    0.0000 H   0  0  0  0  0  0  0  0  0  0  0  0
    2.4675    1.0350    0.0000 H   0  0  0  0  0  0  0  0  0  0  0  0
    4.9966    1.0350    0.0000 H   0  0  0  0  0  0  0  0  0  0  0  0
    4.1996    1.0350    0.0000 H   0  0  0  0  0  0  0  0  0  0  0  0
    1.6900    0.5969    0.0000 H   0  0  0  0  0  0  0  0  0  0  0  0
    1.4631   -0.2500    0.0000 H   0  0  0  0  0  0  0  0  0  0  0  0
    2.3100   -0.4769    0.0000 H   0  0  0  0  0  0  0  0  0  0  0  0
    5.4641   -0.5600    0.0000 H   0  0  0  0  0  0  0  0  0  0  0  0
  1  6  2  0  0  0  0
  2  3  1  0  0  0  0
  2  4  1  0  0  0  0
  2  7  1  0  0  0  0
  2  8  1  0  0  0  0
  3  5  1  0  0  0  0
  3  9  1  0  0  0  0
  3 10  1  0  0  0  0
  4  6  1  0  0  0  0
  4 11  1  0  0  0  0
  4 12  1  0  0  0  0
  5 13  1  0  0  0  0
  5 14  1  0  0  0  0
  5 15  1  0  0  0  0
  6 16  1  0  0  0  0
M  END
> <PUBCHEM_COMPOUND_CID>
8063

> <PUBCHEM_COMPOUND_CANONICALIZED>
1

> <PUBCHEM_CACTVS_COMPLEXITY>
32.9

> <PUBCHEM_CACTVS_HBOND_ACCEPTOR>
1

> <PUBCHEM_CACTVS_HBOND_DONOR>
0

> <PUBCHEM_CACTVS_ROTATABLE_BOND>
3

> <PUBCHEM_CACTVS_SUBSKEYS>
AAADccBgIAAAAAAAAAAAAAAAAAAAAAAAAAAAAAAAAAAAAAAAAAAAGgAAAAAACACggAICAAAAAAAIAAgQgAAAAAAAAAAAAAEAAAAAABIAAAAAAAAAAAAAAAAIAAAAAAAAAAAAAAAAAAAAAAAAAAAAAAAAAA==

> <PUBCHEM_IUPAC_OPENEYE_NAME>
pentanal

> <PUBCHEM_IUPAC_CAS_NAME>
pentanal

> <PUBCHEM_IUPAC_NAME_MARKUP>
pentanal

> <PUBCHEM_IUPAC_NAME>
pentanal

> <PUBCHEM_IUPAC_SYSTEMATIC_NAME>
pentanal

> <PUBCHEM_IUPAC_TRADITIONAL_NAME>
valeraldehyde

> <PUBCHEM_IUPAC_INCHI>
InChI=1S/C5H10O/c1-2-3-4-5-6/h5H,2-4H2,1H3

> <PUBCHEM_IUPAC_INCHIKEY>
HGBOYTHUEUWSSQ-UHFFFAOYSA-N

> <PUBCHEM_XLOGP3_AA>
1.1

> <PUBCHEM_EXACT_MASS>
86.073164938

> <PUBCHEM_MOLECULAR_FORMULA>
C5H10O

> <PUBCHEM_MOLECULAR_WEIGHT>
86.13

> <PUBCHEM_OPENEYE_CAN_SMILES>
CCCCC=O

> <PUBCHEM_OPENEYE_ISO_SMILES>
CCCCC=O

> <PUBCHEM_CACTVS_TPSA>
17.1

> <PUBCHEM_MONOISOTOPIC_WEIGHT>
86.073164938

> <PUBCHEM_TOTAL_CHARGE>
0

> <PUBCHEM_HEAVY_ATOM_COUNT>
6

> <PUBCHEM_ATOM_DEF_STEREO_COUNT>
0

> <PUBCHEM_ATOM_UDEF_STEREO_COUNT>
0

> <PUBCHEM_BOND_DEF_STEREO_COUNT>
0

> <PUBCHEM_BOND_UDEF_STEREO_COUNT>
0

> <PUBCHEM_ISOTOPIC_ATOM_COUNT>
0

> <PUBCHEM_COMPONENT_COUNT>
1

> <PUBCHEM_CACTVS_TAUTO_COUNT>
2

> <PUBCHEM_COORDINATE_TYPE>
1
5
255

$$$$
